! Hydrogen mechanism, from :  
! Yetter, R.A., Dryer, F.L., and Rabitz, H., Comb. Sci. & Tech., 
! vol. 79, pp. 97-128 (1991)
!
ELEMENTS
H O N
END

SPECIES
H2 O2 O OH H2O H HO2 H2O2 N2
END

REACTIONS
H+O2<=>O+OH                   1.9844382e+14  0.00  1.644E+04
O+H2<=>H+OH                   5.1332080e+04  2.67  6.290E+03
H2+OH<=>H2O+H                 2.2988898e+08  1.51  3.430E+03
OH+OH<=>O+H2O                 1.1305003e+04  2.62 -1.880E+03
H2+M<=>H+H+M                  4.9967198e+19 -1.40  1.044E+05
   H2/2.5/ H2O/12/
O+O+M<=>O2+M                  5.9518142e+15 -0.50  0.000E+00
  H2/2.5/ H2O/12/
O+H+M<=>OH+M                  4.2835346e+18 -1.00  0.000E+00
  H2/2.5/ H2O/12/
H+OH+M<=>H2O+M                2.4007947e+22 -2.00  0.000E+00
  H2/2.5/ H2O/6.3/
H+O2+M<=>HO2+M                6.0524485e+19 -1.42  0.000E+00
  H2/2.5/ H2O/12/
HO2+H<=>H2+O2                 7.2350697e+13  0.00  2.130E+03
HO2+H<=>OH+OH                 1.8576010e+14  0.00  8.740E+02
HO2+O<=>O2+OH                 1.9440741e+13  0.00 -4.000E+02
HO2+OH<=>H2O+O2               1.4957215e+16 -1.00  0.000E+00
HO2+HO2<=>H2O2+O2             2.9803227e+12  0.00  1.390E+03
H2O2+M<=>OH+OH+M              1.2294470e+17  0.00  4.550E+04
  H2/2.5/ H2O/12/
H2O2+H<=>H2O+OH               9.0798261e+12  0.00  3.590E+03
H2O2+H<=>HO2+H2               4.6418160e+13  0.00  7.950E+03
H2O2+O<=>OH+HO2               9.1818528e+06  2.00  3.970E+03
H2O2+OH<=>HO2+H2O             7.1026464e+12  0.00  1.430E+03
END
